Version 4
SHEET 1 1792 680
WIRE 288 -240 64 -240
WIRE 832 -240 352 -240
WIRE 848 -240 832 -240
WIRE 64 -192 64 -240
WIRE 848 -176 848 -240
WIRE 64 -64 64 -112
WIRE 848 -64 848 -96
WIRE 288 64 64 64
WIRE 400 64 352 64
WIRE 496 64 464 64
WIRE 640 64 496 64
WIRE 688 64 640 64
WIRE 832 64 752 64
WIRE 848 64 832 64
WIRE 64 112 64 64
WIRE 496 128 496 64
WIRE 640 128 640 64
WIRE 848 128 848 64
WIRE 64 240 64 192
WIRE 496 240 496 208
WIRE 640 240 640 192
WIRE 848 240 848 208
FLAG 64 240 0
FLAG 848 240 0
FLAG 496 240 0
FLAG 640 240 0
FLAG 832 64 out2
FLAG 64 -64 0
FLAG 848 -64 0
FLAG 832 -240 out1
SYMBOL voltage 64 96 R0
WINDOW 123 24 124 Left 2
WINDOW 39 24 152 Left 2
SYMATTR Value2 AC 1
SYMATTR SpiceLine Rser=5k
SYMATTR InstName V1
SYMATTR Value 0
SYMBOL cap 352 48 R90
WINDOW 0 0 32 VBottom 2
WINDOW 3 32 32 VTop 2
SYMATTR InstName C_Whip
SYMATTR Value 12p
SYMBOL cap 464 48 R90
WINDOW 0 0 32 VBottom 2
WINDOW 3 32 32 VTop 2
SYMATTR InstName C2
SYMATTR Value 10p
SYMBOL cap 656 192 R180
WINDOW 0 24 56 Left 2
WINDOW 3 24 8 Left 2
SYMATTR InstName C3
SYMATTR Value 6p
SYMBOL ind 480 112 R0
SYMATTR InstName L1
SYMATTR Value 175n
SYMBOL cap 752 48 R90
WINDOW 0 0 32 VBottom 2
WINDOW 3 32 32 VTop 2
SYMATTR InstName C4
SYMATTR Value 10p
SYMBOL res 832 112 R0
SYMATTR InstName R2
SYMATTR Value 50
SYMBOL voltage 64 -208 R0
WINDOW 123 24 124 Left 2
WINDOW 39 24 152 Left 2
SYMATTR Value2 AC 1
SYMATTR SpiceLine Rser=5k
SYMATTR InstName V2
SYMATTR Value 0
SYMBOL cap 352 -256 R90
WINDOW 0 0 32 VBottom 2
WINDOW 3 32 32 VTop 2
SYMATTR InstName C_Whip1
SYMATTR Value 12p
SYMBOL res 832 -192 R0
SYMATTR InstName R1
SYMATTR Value 50
TEXT 32 272 Left 2 !.ac dec 101 50meg 500meg
TEXT 928 -144 Left 2 ;Whip antenna directly to 50ohm input
TEXT 944 160 Left 2 ;Antenna impedance matching circuit and resonator : signal 10dB stronger
