Version 4
SHEET 1 1032 680
WIRE 240 -48 48 -48
WIRE 320 -48 240 -48
WIRE 544 -48 400 -48
WIRE 544 -16 544 -48
WIRE 240 96 240 -48
WIRE 544 112 544 48
WIRE 48 128 48 -48
WIRE 240 256 240 160
WIRE 48 272 48 208
WIRE 544 272 544 192
FLAG 48 272 0
FLAG 544 272 0
FLAG 240 256 0
SYMBOL voltage 48 112 R0
WINDOW 123 24 124 Left 2
WINDOW 39 24 152 Left 2
SYMATTR InstName V1
SYMATTR Value ""
SYMATTR Value2 AC 1
SYMBOL res 528 96 R0
SYMATTR InstName R1
SYMATTR Value 3
SYMBOL cap 528 -16 R0
SYMATTR InstName C1
SYMATTR Value 100p
SYMBOL ind 416 -64 R90
WINDOW 0 5 56 VBottom 2
WINDOW 3 32 56 VTop 2
SYMATTR InstName L1
SYMATTR Value 45n
SYMBOL cap 224 96 R0
SYMATTR InstName C2
SYMATTR Value 128p
TEXT 38 320 Left 2 !.ac dec 1001 50meg 150meg\n.net I(R1) V1
TEXT 496 -104 Left 2 ;Antenna
TEXT 224 -104 Left 2 ;Matching network
