Version 4
SHEET 1 1628 680
WIRE 32 -272 -112 -272
WIRE 144 -272 112 -272
WIRE 224 -272 144 -272
WIRE 368 -272 224 -272
WIRE 448 -272 368 -272
WIRE 528 -272 448 -272
WIRE 784 -272 528 -272
WIRE -112 -192 -112 -272
WIRE 368 -192 368 -272
WIRE 448 -192 448 -272
WIRE 144 -176 144 -272
WIRE 528 -176 528 -272
WIRE 224 -160 224 -272
WIRE -112 -64 -112 -112
WIRE 144 -64 144 -112
WIRE 448 -48 448 -112
WIRE 528 -48 528 -112
WIRE 528 -48 448 -48
WIRE 784 -16 784 -272
WIRE 368 32 368 -112
WIRE 448 32 448 16
WIRE 448 32 368 32
WIRE 560 32 448 32
WIRE 720 32 560 32
WIRE 1056 32 1040 32
WIRE 1152 32 1120 32
WIRE 1168 32 1152 32
WIRE 368 64 368 32
WIRE 64 112 -48 112
WIRE 176 112 128 112
WIRE 224 112 224 -80
WIRE 224 112 176 112
WIRE 304 112 224 112
WIRE 224 176 224 112
WIRE -48 192 -48 112
WIRE 1168 192 1168 32
WIRE 784 240 784 80
WIRE 1040 240 1040 32
WIRE 1040 240 784 240
WIRE 784 272 784 240
WIRE 368 288 368 160
WIRE -160 336 -384 336
WIRE 144 336 -96 336
WIRE 224 336 224 256
WIRE 224 336 144 336
WIRE 304 336 224 336
WIRE 1168 352 1168 272
WIRE -384 400 -384 336
WIRE 368 400 368 384
WIRE 496 400 368 400
WIRE 224 416 224 336
WIRE 368 416 368 400
WIRE 496 432 496 400
WIRE 784 448 784 352
WIRE -384 544 -384 480
WIRE 224 544 224 496
WIRE 368 544 368 496
WIRE 496 544 496 496
FLAG -112 -64 0
FLAG 224 544 0
FLAG 368 544 0
FLAG -384 544 0
FLAG -48 192 0
FLAG 144 336 BQ2
FLAG 560 32 CQ1
FLAG 176 112 BQ1
FLAG 1168 352 0
FLAG 1152 32 out
FLAG 144 -64 0
FLAG 496 544 0
FLAG 784 448 0
SYMBOL npn 304 64 R0
SYMATTR InstName Q1
SYMATTR Value 2N3904
SYMBOL npn 304 288 R0
SYMATTR InstName Q2
SYMATTR Value 2N3904
SYMBOL res 208 160 R0
SYMATTR InstName R2
SYMATTR Value 10k
SYMBOL res 208 400 R0
SYMATTR InstName R3
SYMATTR Value 10k
SYMBOL res 352 400 R0
SYMATTR InstName R4
SYMATTR Value 220
SYMBOL cap -96 320 R90
WINDOW 0 0 32 VBottom 2
WINDOW 3 32 32 VTop 2
SYMATTR InstName C1
SYMATTR Value 10n
SYMBOL voltage -112 -208 R0
WINDOW 123 0 0 Left 0
WINDOW 39 0 0 Left 0
SYMATTR InstName V1
SYMATTR Value 5
SYMBOL voltage -384 384 R0
WINDOW 123 24 124 Left 2
WINDOW 39 24 152 Left 2
SYMATTR Value2 AC 1
SYMATTR SpiceLine Rser=50
SYMATTR InstName V2
SYMATTR Value SINE(0 1m 10.7e6)
SYMBOL res 208 -176 R0
SYMATTR InstName R5
SYMATTR Value 24k
SYMBOL cap 128 96 R90
WINDOW 0 0 32 VBottom 2
WINDOW 3 32 32 VTop 2
SYMATTR InstName C2
SYMATTR Value 10n
SYMBOL res 1152 176 R0
SYMATTR InstName Rout
SYMATTR Value 50
SYMBOL cap 1120 16 R90
WINDOW 0 0 32 VBottom 2
WINDOW 3 32 32 VTop 2
SYMATTR InstName C3
SYMATTR Value 10n
SYMBOL res 352 -208 R0
SYMATTR InstName R1
SYMATTR Value 1k
SYMBOL res 128 -288 R90
WINDOW 0 0 56 VBottom 2
WINDOW 3 32 56 VTop 2
SYMATTR InstName R6
SYMATTR Value 10
SYMBOL cap 160 -112 R180
WINDOW 0 24 56 Left 2
WINDOW 3 24 8 Left 2
SYMATTR InstName C6
SYMATTR Value 10n
SYMBOL cap 480 432 R0
SYMATTR InstName C4
SYMATTR Value 10n
SYMBOL ind 432 -208 R0
SYMATTR InstName L1
SYMATTR Value 4.7µ
SYMBOL cap 512 -176 R0
SYMATTR InstName C5
SYMATTR Value 33p
SYMBOL cap 432 -48 R0
SYMATTR InstName C7
SYMATTR Value 10n
SYMBOL npn 720 -16 R0
SYMATTR InstName Q3
SYMATTR Value 2N3904
SYMBOL res 768 256 R0
SYMATTR InstName R7
SYMATTR Value 1.2k
TEXT 1352 -8 Left 2 !.net I(Rout) V2
TEXT -912 -144 Left 2 !;tran 10u
TEXT -208 272 Left 2 ;300ohm input impedance
TEXT 368 -320 Left 2 ;Choose R1 so that collector of Q1 is in middle between base of Q1 and VCC for bias.
TEXT 840 -96 Left 2 ;High input impedance, low output impedance because of the buffer.
TEXT -912 -112 Left 2 !.ac dec 1001 1meg 100meg
