Version 4
SHEET 1 1580 744
WIRE 528 -176 -560 -176
WIRE 784 -176 528 -176
WIRE 784 -160 784 -176
WIRE -560 -64 -560 -176
WIRE 704 -64 128 -64
WIRE 784 -64 784 -80
WIRE 784 -64 704 -64
WIRE 128 -48 128 -64
WIRE 128 48 128 32
WIRE 304 48 128 48
WIRE 528 48 528 -176
WIRE 528 48 368 48
WIRE 528 64 528 48
WIRE 784 64 784 -64
WIRE -560 80 -560 16
WIRE 128 112 128 48
WIRE 464 112 128 112
WIRE -192 192 -304 192
WIRE 528 192 528 160
WIRE 528 192 -192 192
WIRE 784 192 784 128
WIRE 784 192 528 192
WIRE 128 208 128 176
WIRE -304 224 -304 192
WIRE -192 224 -192 192
WIRE 528 240 528 192
WIRE 128 288 128 272
WIRE 128 288 -32 288
WIRE 464 288 128 288
WIRE -528 336 -624 336
WIRE -416 336 -464 336
WIRE -304 336 -304 288
WIRE -304 336 -336 336
WIRE -192 336 -192 304
WIRE -192 336 -304 336
WIRE -96 336 -192 336
WIRE -624 368 -624 336
WIRE 128 368 128 288
WIRE 320 368 128 368
WIRE 528 368 528 336
WIRE 528 368 384 368
WIRE -192 384 -192 336
WIRE -624 528 -624 448
WIRE -192 528 -192 464
WIRE -32 528 -32 384
WIRE 528 528 528 368
FLAG -560 80 0
FLAG -624 528 0
FLAG -192 528 0
FLAG -32 528 0
FLAG 528 528 0
FLAG 704 -64 out
DATAFLAG 352 192 ""
DATAFLAG 352 -64 ""
DATAFLAG 336 288 ""
DATAFLAG 352 112 ""
DATAFLAG -208 336 ""
SYMBOL npn 464 64 R0
SYMATTR InstName Q1
SYMATTR Value ZXTN4240FQ
SYMBOL pnp 464 336 M180
SYMATTR InstName Q3
SYMATTR Value ZXTP5240F
SYMBOL diode 112 112 R0
SYMATTR InstName D1
SYMATTR Value 1N4148
SYMBOL diode 112 208 R0
SYMATTR InstName D2
SYMATTR Value 1N4148
SYMBOL res 112 -64 R0
SYMATTR InstName R1
SYMATTR Value 1k
SYMBOL res -208 208 R0
SYMATTR InstName R2
SYMATTR Value 18k
SYMBOL res -208 368 R0
SYMATTR InstName R3
SYMATTR Value 5.6k
SYMBOL res -320 320 R90
WINDOW 0 0 56 VBottom 2
WINDOW 3 32 56 VTop 2
SYMATTR InstName R4
SYMATTR Value 2.3k
SYMBOL voltage -560 -80 R0
SYMATTR InstName V1
SYMATTR Value 5
SYMBOL cap -464 320 R90
WINDOW 0 0 32 VBottom 2
WINDOW 3 32 32 VTop 2
SYMATTR InstName C1
SYMATTR Value 10µ
SYMBOL cap 800 128 R180
WINDOW 0 24 56 Left 2
WINDOW 3 24 8 Left 2
SYMATTR InstName C2
SYMATTR Value 1mF
SYMATTR SpiceLine Rser=500m
SYMBOL res 768 -176 R0
SYMATTR InstName Rout
SYMATTR Value 8
SYMBOL voltage -624 352 R0
WINDOW 3 24 152 Left 2
WINDOW 123 24 124 Left 2
WINDOW 39 24 180 Left 2
SYMATTR Value SINE(0 {160m*sqrt(2)} 1k)
SYMATTR Value2 AC 1
SYMATTR SpiceLine Rser=30
SYMATTR InstName Vin
SYMBOL cap -320 224 R0
SYMATTR InstName C5
SYMATTR Value 68p
SYMBOL cap 368 32 R90
WINDOW 0 0 32 VBottom 2
WINDOW 3 32 32 VTop 2
SYMATTR InstName C3
SYMATTR Value 4.7n
SYMBOL cap 384 352 R90
WINDOW 0 0 32 VBottom 2
WINDOW 3 32 32 VTop 2
SYMATTR InstName C4
SYMATTR Value 4.7n
SYMBOL npn -96 288 R0
SYMATTR InstName Q2
SYMATTR Value ZXTN4240FQ
TEXT 1152 -152 Left 2 !.param f=1e3\n.four {f} 10 100 V(out)\n.options numdgt=7\n.options plotwinsize=0\n.op\n.tran 0 {120/f} {20/f} {1/(f*100)}\n;ac dec 1meg 10 100k\n;.net I(Rout) Vin\n.inc SS8050.mod\n.inc SS8550.mod\n.inc ZXTN4240FQ.spice.txt\n.inc ZXTP5240F.spice.txt
TEXT -632 128 Left 2 ;Idc=11mA\nTHD 1% at Vin=160mVrms (30ohm source) and Pout=140mW
TEXT 800 128 Left 2 ;ESR of C2 is not critical,\nkeep < 0.5ohm
TEXT -136 584 Left 2 ;R2+R3 should be 15K + 10K trimpot + 2.2K -> trim for V(Q1.E) = 2.5V
TEXT -136 616 Left 2 ;SS8050 and SS8550 : 1%THD at 120mW, R1=390ohm, R2=17K, R3=7.5K\n \nThe following transistor combinations have a much higher current gain:\n* ZXTN4240/ZXTN5240\n* 2SD2657/2SB1695
