* DIODES INCORPORATED AND ITS AFFILIATED COMPANIES AND SUBSIDIARIES (COLLECTIVELY, "DIODES") 
* PROVIDE THESE SPICE MODELS AND DATA (COLLECTIVELY, THE "SM DATA") "AS IS" AND WITHOUT ANY 
* REPRESENTATIONS OR WARRANTIES, EXPRESS OR IMPLIED, INCLUDING ANY WARRANTY OF MERCHANTABILITY 
* OR FITNESS FOR A PARTICULAR PURPOSE, ANY WARRANTY ARISING FROM COURSE OF DEALING OR COURSE OF 
* PERFORMANCE, OR ANY WARRANTY THAT ACCESS TO OR OPERATION OF THE SM DATA WILL BE UNINTERRUPTED, 
* OR THAT THE SM DATA OR ANY SIMULATION USING THE SM DATA WILL BE ERROR FREE. TO THE MAXIMUM 
* EXTENT PERMITTED BY LAW, IN NO EVENT WILL DIODES BE LIABLE FOR ANY DIRECT OR INDIRECT, 
* SPECIAL, INCIDENTAL, PUNITIVE OR CONSEQUENTIAL DAMAGES ARISING OUT OF OR IN CONNECTION WITH 
* THE PRODUCTION OR USE OF SM DATA, HOWEVER CAUSED AND UNDER WHATEVER CAUSE OF ACTION OR THEORY 
* OF LIABILITY BROUGHT (INCLUDING, WITHOUT LIMITATION, UNDER ANY CONTRACT, NEGLIGENCE OR OTHER 
* TORT THEORY OF LIABILITY), EVEN IF DIODES HAS BEEN ADVISED OF THE POSSIBILITY OF SUCH DAMAGES, 
* AND DIODES' TOTAL LIABILITY (WHETHER IN CONTRACT, TORT OR OTHERWISE) WITH REGARD TO THE SM 
* DATA WILL NOT, IN THE AGGREGATE, EXCEED ANY SUMS PAID BY YOU TO DIODES FOR THE SM DATA.



*DIODES_INC_ZXTN4240FQ_SPICE_MODEL
*DATE=13Apr2025
*VERSION=1.0
*ORIGIN=DZSL_BBU_DT
*SIMULATOR=SIMETRIX
* 
.MODEL ZXTN4240FQ  NPN (IS=526f NF=1.00 BF=526 VAF=27
+ IKF=6.33 ISE=520f NE=2.00 BR=84.00 NR=1.00 NK=0.51 NC=2.00 ISC=352p
+ VAR=20.0 IKR=3.45 RE=37.2m RB=93.0m RC=17.30m RCO=1.01
+ XTB=1.36 XTI=5.20 CJE=459p VJE=1.10 MJE=0.500 CJC=32.6p VJC=0.300
+ MJC=0.300 TF=1701p TR=6.44n EG=1.12 
+ TRE1=0.003 TRB1=0.003 TRC1=0.001 GAMMA=6.4n QUASIMOD=1 )