Version 4
SHEET 1 880 680
WIRE -592 -464 -848 -464
WIRE -384 -464 -496 -464
WIRE -304 -464 -320 -464
WIRE -192 -464 -304 -464
WIRE -32 -464 -192 -464
WIRE 208 -464 32 -464
WIRE 704 -464 304 -464
WIRE 816 -464 704 -464
WIRE 816 -432 816 -464
WIRE -848 -400 -848 -464
WIRE -192 -384 -192 -464
WIRE -192 -368 -192 -384
WIRE -304 -352 -304 -464
WIRE 816 -304 816 -352
WIRE -848 -288 -848 -320
WIRE -304 -256 -304 -288
WIRE -192 -256 -192 -288
WIRE -192 -256 -304 -256
WIRE -304 -240 -304 -256
FLAG -848 -288 0
FLAG 816 -304 0
FLAG 704 -464 OUT4
FLAG -304 -240 0
SYMBOL voltage -848 -416 R0
WINDOW 123 24 152 Left 2
WINDOW 39 24 124 Left 2
SYMATTR Value2 AC 2
SYMATTR SpiceLine Rser=50
SYMATTR InstName V1
SYMATTR Value ""
SYMBOL res 800 -448 R0
SYMATTR InstName R1
SYMATTR Value 50
SYMBOL cap -320 -480 R90
WINDOW 0 0 32 VBottom 2
WINDOW 3 32 32 VTop 2
SYMATTR InstName C1
SYMATTR Value 6.8p
SYMBOL cap 32 -480 R90
WINDOW 0 0 32 VBottom 2
WINDOW 3 32 32 VTop 2
SYMATTR InstName C2
SYMATTR Value 6.8p
SYMBOL cap -288 -288 R180
WINDOW 0 24 56 Left 2
WINDOW 3 24 8 Left 2
SYMATTR InstName C3
SYMATTR Value 180p
SYMBOL Contrib\\Wurth\\Signal\\RF-Inductors\\WE-CAIR -544 -464 R0
SYMATTR SpiceModel 5910_744918242_422n
SYMATTR InstName L2
SYMBOL Contrib\\Wurth\\Signal\\RF-Inductors\\WE-CAIR -192 -336 R90
SYMATTR SpiceModel 3136_744913118_18.5n
SYMATTR InstName L1
SYMBOL Contrib\\Wurth\\Signal\\RF-Inductors\\WE-CAIR 256 -464 R0
SYMATTR SpiceModel 5910_744918242_422n
SYMATTR InstName L3
TEXT -112 -384 Left 2 ;https://markimicrowave.com/technical-resources/tools/lc-filter-design-tool/\nBandpass Chebychev\nConventional Series First, 3rd order\n88MHz to 108MHz\n0.1dB ripple\n50ohm input and output\nE12-series components
TEXT -848 -576 Left 2 !.ac dec 1000 50meg 200meg
