Version 4
SHEET 1 1276 820
WIRE -480 -320 -624 -320
WIRE -320 -320 -480 -320
WIRE -304 -320 -320 -320
WIRE -48 -320 -224 -320
WIRE 96 -320 16 -320
WIRE 224 -320 96 -320
WIRE 224 -288 224 -320
WIRE -624 -272 -624 -320
WIRE -480 -208 -480 -320
WIRE -304 -208 -480 -208
WIRE -208 -208 -224 -208
WIRE -96 -208 -208 -208
WIRE -48 -208 -96 -208
WIRE 96 -208 96 -320
WIRE 96 -208 32 -208
WIRE -624 -128 -624 -192
WIRE -208 -96 -208 -208
WIRE -96 -96 -96 -208
WIRE 224 -64 224 -208
WIRE -208 128 -208 0
WIRE -96 128 -96 -32
WIRE -96 128 -208 128
WIRE -208 160 -208 128
WIRE -480 320 -624 320
WIRE -320 320 -480 320
WIRE -304 320 -320 320
WIRE -48 320 -224 320
WIRE 96 320 16 320
WIRE 224 320 96 320
WIRE 224 352 224 320
WIRE -624 368 -624 320
WIRE -480 432 -480 320
WIRE -304 432 -480 432
WIRE -208 432 -224 432
WIRE -96 432 -208 432
WIRE -48 432 -96 432
WIRE 96 432 96 320
WIRE 96 432 32 432
WIRE -624 512 -624 448
WIRE -208 544 -208 432
WIRE -96 544 -96 432
WIRE 224 576 224 432
WIRE -208 768 -208 640
WIRE -96 768 -96 608
WIRE -96 768 -208 768
WIRE -208 800 -208 768
FLAG -624 -128 0
FLAG 224 -64 0
FLAG -208 160 0
FLAG -624 512 0
FLAG 224 576 0
FLAG -208 800 0
SYMBOL voltage -624 -288 R0
WINDOW 123 24 124 Left 2
WINDOW 39 24 152 Left 2
SYMATTR Value2 AC 1
SYMATTR SpiceLine Rser=50
SYMATTR InstName V1
SYMATTR Value ""
SYMBOL res 208 -304 R0
SYMATTR InstName R1
SYMATTR Value 50
SYMBOL cap 16 -336 R90
WINDOW 0 0 32 VBottom 2
WINDOW 3 32 32 VTop 2
SYMATTR InstName C1
SYMATTR Value 6.8p
SYMBOL res -208 -224 R90
WINDOW 0 0 56 VBottom 2
WINDOW 3 32 56 VTop 2
SYMATTR InstName R2
SYMATTR Value 50
SYMBOL res 48 -224 R90
WINDOW 0 0 56 VBottom 2
WINDOW 3 32 56 VTop 2
SYMATTR InstName R3
SYMATTR Value 50
SYMBOL cap -112 -96 R0
SYMATTR InstName Cp1
SYMATTR Value 150p
SYMBOL Contrib\\Wurth\\Signal\\RF-Inductors\\WE-CAIR -208 -48 R90
SYMATTR SpiceModel 3168_744914117_17.5n
SYMATTR InstName L2
SYMBOL Contrib\\Wurth\\Signal\\RF-Inductors\\WE-KI -272 -320 R0
SYMATTR SpiceModel 1008_744762239A
SYMATTR InstName L1
SYMBOL voltage -624 352 R0
WINDOW 123 24 124 Left 2
WINDOW 39 24 152 Left 2
SYMATTR Value2 AC 1
SYMATTR SpiceLine Rser=50
SYMATTR InstName V2
SYMATTR Value ""
SYMBOL res 208 336 R0
SYMATTR InstName R4
SYMATTR Value 50
SYMBOL cap 16 304 R90
WINDOW 0 0 32 VBottom 2
WINDOW 3 32 32 VTop 2
SYMATTR InstName C2
SYMATTR Value 6.8p
SYMBOL res -208 416 R90
WINDOW 0 0 56 VBottom 2
WINDOW 3 32 56 VTop 2
SYMATTR InstName R5
SYMATTR Value 50
SYMBOL res 48 416 R90
WINDOW 0 0 56 VBottom 2
WINDOW 3 32 56 VTop 2
SYMATTR InstName R6
SYMATTR Value 50
SYMBOL cap -112 544 R0
SYMATTR InstName Cp2
SYMATTR Value 146p
SYMBOL Contrib\\Wurth\\Signal\\RF-Inductors\\WE-KI -272 320 R0
SYMATTR SpiceModel 1008_744762239A
SYMATTR InstName L4
SYMBOL Contrib\\Wurth\\Signal\\RF-Inductors\\WE-KI -208 592 R90
SYMATTR SpiceModel 1008_744762118A
SYMATTR InstName L3
TEXT 344 -352 Left 2 !.net I(R1) V1
TEXT 360 -392 Left 2 !.ac dec 1001 5e6 1e9
TEXT 320 344 Left 2 !.net I(R4) V2
