Version 4
SHEET 1 1276 680
WIRE -480 -320 -624 -320
WIRE -320 -320 -480 -320
WIRE -304 -320 -320 -320
WIRE -48 -320 -224 -320
WIRE 96 -320 16 -320
WIRE 224 -320 96 -320
WIRE 224 -288 224 -320
WIRE -624 -272 -624 -320
WIRE -480 -208 -480 -320
WIRE -304 -208 -480 -208
WIRE -208 -208 -224 -208
WIRE -96 -208 -208 -208
WIRE -48 -208 -96 -208
WIRE 96 -208 96 -320
WIRE 96 -208 32 -208
WIRE -624 -128 -624 -192
WIRE -208 -96 -208 -208
WIRE -96 -96 -96 -208
WIRE 224 -64 224 -208
WIRE -208 128 -208 0
WIRE -96 128 -96 -32
WIRE -96 128 -208 128
WIRE -208 160 -208 128
FLAG -624 -128 0
FLAG 224 -64 0
FLAG -208 160 0
SYMBOL voltage -624 -288 R0
WINDOW 123 24 124 Left 2
WINDOW 39 24 152 Left 2
SYMATTR Value2 AC 1
SYMATTR SpiceLine Rser=50
SYMATTR InstName V1
SYMATTR Value ""
SYMBOL res 208 -304 R0
SYMATTR InstName R1
SYMATTR Value 50
SYMBOL cap 16 -336 R90
WINDOW 0 0 32 VBottom 2
WINDOW 3 32 32 VTop 2
SYMATTR InstName C1
SYMATTR Value 6.8p
SYMBOL res -208 -224 R90
WINDOW 0 0 56 VBottom 2
WINDOW 3 32 56 VTop 2
SYMATTR InstName R2
SYMATTR Value 50
SYMBOL res 48 -224 R90
WINDOW 0 0 56 VBottom 2
WINDOW 3 32 56 VTop 2
SYMATTR InstName R3
SYMATTR Value 50
SYMBOL cap -112 -96 R0
SYMATTR InstName Cp1
SYMATTR Value 150p
SYMBOL Contrib\\Wurth\\Signal\\RF-Inductors\\WE-CAIR -208 -48 R90
SYMATTR SpiceModel 3168_744914117_17.5n
SYMATTR InstName L2
SYMBOL Contrib\\Wurth\\Signal\\RF-Inductors\\WE-KI -272 -320 R0
SYMATTR SpiceModel 1008_744762239A
SYMATTR InstName L1
TEXT 344 -352 Left 2 !.net I(R1) V1
TEXT 360 -392 Left 2 !.ac dec 1001 5e6 500e6
