Version 4.1
SHEET 1 880 900
WIRE -208 48 -960 48
WIRE -368 96 -448 96
WIRE -128 96 -368 96
WIRE 544 112 432 112
WIRE 608 112 544 112
WIRE -448 128 -448 96
WIRE -368 128 -368 96
WIRE 208 128 176 128
WIRE 432 128 432 112
WIRE 432 128 208 128
WIRE -1296 144 -1760 144
WIRE -1200 144 -1296 144
WIRE 608 144 608 112
WIRE -1200 176 -1200 144
WIRE -1152 176 -1200 176
WIRE -960 176 -960 48
WIRE -960 176 -1056 176
WIRE -128 176 -128 96
WIRE 16 176 -128 176
WIRE 176 176 176 128
WIRE 176 176 112 176
WIRE -1760 192 -1760 144
WIRE -1152 208 -1200 208
WIRE 176 208 112 208
WIRE -864 224 -1056 224
WIRE -448 224 -448 192
WIRE -448 224 -656 224
WIRE -368 224 -368 192
WIRE -208 224 -208 48
WIRE -208 224 -368 224
WIRE 16 224 -176 224
WIRE 176 224 176 208
WIRE 320 224 176 224
WIRE 496 224 320 224
WIRE -1312 240 -1584 240
WIRE -1200 240 -1200 208
WIRE -1200 240 -1312 240
WIRE -1152 240 -1184 240
WIRE -448 240 -448 224
WIRE -368 240 -368 224
WIRE -176 240 -176 224
WIRE 208 240 208 128
WIRE 208 240 112 240
WIRE 496 240 496 224
WIRE 608 240 608 224
WIRE 608 240 496 240
WIRE -960 272 -1056 272
WIRE 16 272 -128 272
WIRE 320 272 320 224
WIRE 320 272 112 272
WIRE 608 272 608 240
WIRE -1760 304 -1760 272
WIRE -1584 304 -1584 240
WIRE -1584 304 -1760 304
WIRE -1760 320 -1760 304
WIRE -448 320 -448 304
WIRE -368 320 -368 304
WIRE -368 320 -448 320
WIRE -128 320 -128 272
WIRE -128 320 -368 320
WIRE -1296 352 -1296 144
WIRE -1184 352 -1184 240
WIRE -1184 352 -1296 352
WIRE -960 384 -960 272
WIRE -656 384 -656 224
WIRE -656 384 -960 384
WIRE -1312 432 -1312 240
WIRE -1152 432 -1152 272
WIRE -1152 432 -1312 432
WIRE -864 544 -864 224
WIRE -752 544 -864 544
WIRE -752 656 -752 544
WIRE -720 656 -720 640
WIRE -720 656 -752 656
WIRE -720 752 -720 656
WIRE -720 864 -720 832
FLAG -176 240 0
FLAG -1760 320 0
FLAG 608 272 0
FLAG -720 864 0
FLAG 544 112 IF2
SYMBOL voltage -1760 176 R0
WINDOW 3 -18 184 Left 2
WINDOW 123 0 0 Left 0
WINDOW 39 -18 212 Left 2
SYMATTR Value PULSE(0 1.4 0 1n 1n {1/(2*f)} {1/f})
SYMATTR SpiceLine Rser=50
SYMATTR InstName LO2
SYMBOL voltage -720 736 R0
WINDOW 123 0 0 Left 0
WINDOW 39 24 124 Left 2
SYMATTR SpiceLine Rser=50
SYMATTR InstName RF2
SYMATTR Value SINE(0 1e-3 108e6)
SYMBOL res 624 128 M0
SYMATTR InstName R2
SYMATTR Value 50
SYMBOL diode -384 192 M180
WINDOW 0 24 64 Left 2
WINDOW 3 24 0 Left 2
SYMATTR InstName D5
SYMATTR Value DI_SMS3923
SYMBOL diode -384 304 M180
WINDOW 0 24 64 Left 2
WINDOW 3 24 0 Left 2
SYMATTR InstName D6
SYMATTR Value DI_SMS3923
SYMBOL diode -432 128 M0
SYMATTR InstName D7
SYMATTR Value DI_SMS3923
SYMBOL diode -432 240 M0
SYMATTR InstName D8
SYMATTR Value DI_SMS3923
SYMBOL Contrib\\Wurth\\Signal\\Transformer\\WE-STST -1104 224 M0
SYMATTR InstName T1
SYMBOL Contrib\\Wurth\\Signal\\Transformer\\WE-STST 64 224 R0
SYMATTR InstName T2
TEXT -1360 -792 Left 2 !.param f=98e6\n.inc BAV99.spice.txt\n.inc 1N5711WS.spice.txt\n.MODEL DI_SMS3923 D  ( IS=5e-9 RS=10 BV=46 IBV=1e-5\n+ CJO=0.9p  M=0.24 N=1.05 TT=8e-11 )\n;.options numdgt=7\n.options plotwinsize=0\n.tran 0 20u 10u
