Version 4.1
SHEET 1 880 900
WIRE -208 48 -960 48
WIRE -368 96 -448 96
WIRE -128 96 -368 96
WIRE -448 128 -448 96
WIRE -368 128 -368 96
WIRE 496 128 320 128
WIRE 128 144 64 144
WIRE 320 144 320 128
WIRE -1376 160 -1664 160
WIRE -1104 160 -1184 160
WIRE 496 160 496 128
WIRE -1104 192 -1104 160
WIRE -1072 192 -1104 192
WIRE -960 192 -960 48
WIRE -960 192 -976 192
WIRE -128 192 -128 96
WIRE -96 192 -128 192
WIRE 64 192 64 144
WIRE 64 192 0 192
WIRE -1664 208 -1664 160
WIRE -1072 224 -1104 224
WIRE -864 224 -976 224
WIRE -448 224 -448 192
WIRE -448 224 -656 224
WIRE -368 224 -368 192
WIRE -208 224 -208 48
WIRE -208 224 -368 224
WIRE -96 224 -144 224
WIRE 64 224 0 224
WIRE -448 240 -448 224
WIRE -368 240 -368 224
WIRE 64 240 64 224
WIRE 128 240 64 240
WIRE 384 240 320 240
WIRE -1376 256 -1488 256
WIRE -1104 256 -1104 224
WIRE -1104 256 -1184 256
WIRE -960 256 -976 256
WIRE -96 256 -128 256
WIRE 384 256 384 240
WIRE 496 256 496 240
WIRE 496 256 384 256
WIRE 496 288 496 256
WIRE -1664 320 -1664 288
WIRE -1488 320 -1488 256
WIRE -1488 320 -1664 320
WIRE -448 320 -448 304
WIRE -368 320 -368 304
WIRE -368 320 -448 320
WIRE -128 320 -128 256
WIRE -128 320 -368 320
WIRE -1664 336 -1664 320
WIRE -960 384 -960 256
WIRE -656 384 -656 224
WIRE -656 384 -960 384
WIRE -864 544 -864 224
WIRE -800 544 -864 544
WIRE -144 544 -144 224
WIRE -144 544 -608 544
WIRE -800 640 -864 640
WIRE -576 640 -608 640
WIRE -864 688 -864 640
WIRE -576 752 -576 640
WIRE -576 864 -576 832
FLAG -1664 336 0
FLAG 496 288 0
FLAG -576 864 0
FLAG -576 640 IF2
FLAG -864 688 0
SYMBOL ALT4532M_201_T001_s -48 224 M0
SYMATTR InstName U1
SYMBOL voltage -1664 192 R0
WINDOW 3 -18 184 Left 2
WINDOW 123 0 0 Left 0
WINDOW 39 -18 212 Left 2
SYMATTR Value PULSE({-amp} {amp} 0 1n 1n {1/(2*f)} {1/f})
SYMATTR SpiceLine Rser=50
SYMATTR InstName LO2
SYMBOL voltage 496 144 R0
WINDOW 123 0 0 Left 0
WINDOW 39 24 124 Left 2
SYMATTR SpiceLine Rser=50
SYMATTR InstName RF2
SYMATTR Value SINE(0 1e-3 108e6)
SYMBOL res -592 736 R0
SYMATTR InstName R2
SYMATTR Value 50
SYMBOL diode -384 192 M180
WINDOW 0 24 64 Left 2
WINDOW 3 24 0 Left 2
SYMATTR InstName D5
SYMATTR Value DI_SMS3923
SYMBOL diode -384 304 M180
WINDOW 0 24 64 Left 2
WINDOW 3 24 0 Left 2
SYMATTR InstName D6
SYMATTR Value DI_SMS3923
SYMBOL diode -432 128 M0
SYMATTR InstName D7
SYMATTR Value DI_SMS3923
SYMBOL diode -432 240 M0
SYMATTR InstName D8
SYMATTR Value DI_SMS3923
SYMBOL ALT4532M_201_T001_s -1024 224 M0
SYMATTR InstName U2
SYMBOL Contrib\\Wurth\\EMC-Components\\CommonModeChokes\\WE-CNSW -1280 208 R180
SYMATTR InstName L7
SYMATTR SpiceModel 1812_744235510_3000ohm
SYMBOL Contrib\\Wurth\\EMC-Components\\CommonModeChokes\\WE-CNSW 224 192 R180
SYMATTR InstName L8
SYMATTR SpiceModel 1812_744235510_3000ohm
SYMBOL Contrib\\Wurth\\EMC-Components\\CommonModeChokes\\WE-CNSW -704 592 M180
SYMATTR InstName L9
SYMATTR SpiceModel 1812_744235510_3000ohm
TEXT -1664 -192 Left 2 !.param f=98e6\n.param amp=0.7\n.inc BAV99.spice.txt\n.inc 1N5711WS.spice.txt\n.MODEL DI_SMS3923 D  ( IS=5e-9 RS=10 BV=46 IBV=1e-5\n+ CJO=0.9p  M=0.24 N=1.05 TT=8e-11 )\n.options numdgt=7\n.options plotwinsize=0\n.tran 0 20u 10u
