Version 4
SHEET 1 2060 680
WIRE -784 -448 -848 -448
WIRE -656 -448 -720 -448
WIRE -528 -448 -576 -448
WIRE -320 -448 -528 -448
WIRE -256 -448 -320 -448
WIRE -128 -448 -192 -448
WIRE 0 -448 -48 -448
WIRE -848 -384 -848 -448
WIRE -528 -384 -528 -448
WIRE -320 -384 -320 -448
WIRE 0 -384 0 -448
WIRE -848 -240 -848 -304
WIRE -528 -240 -528 -320
WIRE -320 -240 -320 -304
WIRE 0 -240 0 -304
WIRE 944 -160 880 -160
WIRE 1072 -160 1008 -160
WIRE 1200 -160 1152 -160
WIRE 1408 -160 1200 -160
WIRE 1472 -160 1408 -160
WIRE 1600 -160 1536 -160
WIRE 1728 -160 1680 -160
WIRE 1744 -160 1728 -160
WIRE 880 -96 880 -160
WIRE 1200 -96 1200 -160
WIRE 1408 -96 1408 -160
WIRE 1728 -96 1728 -160
WIRE -752 -80 -848 -80
WIRE -544 -80 -656 -80
WIRE -464 -80 -480 -80
WIRE -352 -80 -464 -80
WIRE -272 -80 -352 -80
WIRE -128 -80 -208 -80
WIRE 80 -80 -32 -80
WIRE 80 -48 80 -80
WIRE -848 -16 -848 -80
WIRE -352 0 -352 -80
WIRE -352 16 -352 0
WIRE -464 32 -464 -80
WIRE 880 48 880 -16
WIRE 1200 48 1200 -32
WIRE 1408 48 1408 -16
WIRE 1728 48 1728 -16
WIRE 80 80 80 32
WIRE -848 96 -848 64
WIRE -464 128 -464 96
WIRE -352 128 -352 96
WIRE -352 128 -464 128
WIRE -464 144 -464 128
WIRE 816 160 816 -528
WIRE -752 320 -848 320
WIRE -544 320 -656 320
WIRE -464 320 -480 320
WIRE -352 320 -464 320
WIRE -272 320 -352 320
WIRE -128 320 -208 320
WIRE 80 320 -32 320
WIRE 80 352 80 320
WIRE -848 384 -848 320
WIRE -352 400 -352 320
WIRE -352 416 -352 400
WIRE -464 432 -464 320
WIRE 80 480 80 432
WIRE -848 496 -848 464
WIRE -464 528 -464 496
WIRE -352 528 -352 496
WIRE -352 528 -464 528
WIRE -464 544 -464 528
FLAG -848 96 0
FLAG 80 80 0
FLAG -464 144 0
FLAG -848 -240 0
FLAG -528 -240 0
FLAG -320 -240 0
FLAG 0 -240 0
FLAG 880 48 0
FLAG 1200 48 0
FLAG 1408 48 0
FLAG 1728 48 0
FLAG -848 496 0
FLAG 80 480 0
FLAG -464 544 0
SYMBOL voltage -848 -32 R0
WINDOW 123 24 152 Left 2
WINDOW 39 24 124 Left 2
SYMATTR Value2 AC 1
SYMATTR SpiceLine Rser=50
SYMATTR InstName V2
SYMATTR Value ""
SYMBOL res 64 -64 R0
SYMATTR InstName RL1
SYMATTR Value 50
SYMBOL cap -480 -96 R90
WINDOW 0 0 32 VBottom 2
WINDOW 3 32 32 VTop 2
SYMATTR InstName C4
SYMATTR Value 6.8p
SYMBOL cap -208 -96 R90
WINDOW 0 0 32 VBottom 2
WINDOW 3 32 32 VTop 2
SYMATTR InstName C5
SYMATTR Value 6.8p
SYMBOL cap -448 96 R180
WINDOW 0 24 56 Left 2
WINDOW 3 24 8 Left 2
SYMATTR InstName C6
SYMATTR Value 177p
SYMBOL Contrib\\Wurth\\Signal\\RF-Inductors\\WE-KI -352 48 R90
SYMATTR SpiceModel 1008_744762115A
SYMATTR InstName L5
SYMBOL Contrib\\Wurth\\Signal\\RF-Inductors\\WE-KI -704 -80 R0
SYMATTR SpiceModel 1008_744762239A
SYMATTR InstName L4
SYMBOL Contrib\\Wurth\\Signal\\RF-Inductors\\WE-KI -80 -80 R0
SYMATTR SpiceModel 1008_744762239A
SYMATTR InstName L6
SYMBOL voltage -848 -400 R0
WINDOW 123 40 48 Left 2
WINDOW 39 39 77 Left 2
SYMATTR Value2 AC 1 0
SYMATTR SpiceLine Rser=50.00
SYMATTR InstName V1
SYMATTR Value ""
SYMBOL cap -784 -432 R270
WINDOW 0 32 32 VTop 2
WINDOW 3 0 32 VBottom 2
SYMATTR InstName C1
SYMATTR Value 6.494p
SYMBOL ind -672 -432 R270
WINDOW 0 32 56 VTop 2
WINDOW 3 5 56 VBottom 2
SYMATTR InstName L1
SYMATTR Value 410.4n
SYMBOL cap -544 -384 R0
SYMATTR InstName C2
SYMATTR Value 182.6p
SYMBOL ind -336 -400 R0
SYMATTR InstName L2
SYMATTR Value 14.59n
SYMBOL cap -256 -432 R270
WINDOW 0 32 32 VTop 2
WINDOW 3 0 32 VBottom 2
SYMATTR InstName C3
SYMATTR Value 6.494p
SYMBOL ind -144 -432 R270
WINDOW 0 32 56 VTop 2
WINDOW 3 5 56 VBottom 2
SYMATTR InstName L3
SYMATTR Value 410.4n
SYMBOL res -16 -400 R0
SYMATTR InstName RL
SYMATTR Value 50
SYMBOL voltage 880 -112 R0
WINDOW 123 40 48 Left 2
WINDOW 39 39 77 Left 2
SYMATTR Value2 AC 1 0
SYMATTR SpiceLine Rser=50.00
SYMATTR InstName V3
SYMATTR Value ""
SYMBOL cap 944 -144 R270
WINDOW 0 32 32 VTop 2
WINDOW 3 0 32 VBottom 2
SYMATTR InstName C7
SYMATTR Value 6.698p
SYMBOL ind 1056 -144 R270
WINDOW 0 32 56 VTop 2
WINDOW 3 5 56 VBottom 2
SYMATTR InstName L7
SYMATTR Value 397.9n
SYMBOL cap 1184 -96 R0
SYMATTR InstName C8
SYMATTR Value 318.3p
SYMBOL ind 1392 -112 R0
SYMATTR InstName L8
SYMATTR Value 8.373n
SYMBOL cap 1472 -144 R270
WINDOW 0 32 32 VTop 2
WINDOW 3 0 32 VBottom 2
SYMATTR InstName C9
SYMATTR Value 6.698p
SYMBOL ind 1584 -144 R270
WINDOW 0 32 56 VTop 2
WINDOW 3 5 56 VBottom 2
SYMATTR InstName L9
SYMATTR Value 397.9n
SYMBOL res 1712 -112 R0
SYMATTR InstName RL2
SYMATTR Value 50
SYMBOL voltage -848 368 R0
WINDOW 123 24 152 Left 2
WINDOW 39 24 124 Left 2
SYMATTR Value2 AC 1
SYMATTR SpiceLine Rser=50
SYMATTR InstName V4
SYMATTR Value ""
SYMBOL res 64 336 R0
SYMATTR InstName RL3
SYMATTR Value 50
SYMBOL cap -480 304 R90
WINDOW 0 0 32 VBottom 2
WINDOW 3 32 32 VTop 2
SYMATTR InstName C10
SYMATTR Value 6p
SYMBOL cap -208 304 R90
WINDOW 0 0 32 VBottom 2
WINDOW 3 32 32 VTop 2
SYMATTR InstName C11
SYMATTR Value 6p
SYMBOL cap -448 496 R180
WINDOW 0 24 56 Left 2
WINDOW 3 24 8 Left 2
SYMATTR InstName C12
SYMATTR Value 220p
SYMBOL Contrib\\Wurth\\Signal\\RF-Inductors\\WE-CAIR -352 448 R90
SYMATTR SpiceModel 3136_744913112_12.5n
SYMATTR InstName L10
SYMBOL Contrib\\Wurth\\Signal\\RF-Inductors\\WE-CAIR -704 320 R0
SYMATTR SpiceModel 5910_744918242_422n
SYMATTR InstName L11
SYMBOL Contrib\\Wurth\\Signal\\RF-Inductors\\WE-CAIR -80 320 R0
SYMATTR SpiceModel 5910_744918242_422n
SYMATTR InstName L12
TEXT 280 -72 Left 2 !.ac dec 1001 50Meg 200Meg\n.net I(RL) V1\n.net I(RL1) V2\n.net I(RL2) V3\n.net I(RL3) V4
TEXT 112 -336 Left 2 ;3rd Order Chebyshev Bandpass\nConventional, Series First\nLower Cutoff Freq. = 88 MHz; Upper Cutoff Freq. = 108 MHz\nPassband Ripple = 0.10 dB\n\nrf-tools.com | Apr 13 2025 13:20
TEXT 872 -336 Left 2 ;3rd Order Butterworth Bandpass\nConventional, Series First\nLower Cutoff Freq. = 88 MHz; Upper Cutoff Freq. = 108 MHz\n\n\nrf-tools.com | Apr 13 2025 20:26
