Version 4
SHEET 1 884 680
WIRE -592 -464 -848 -464
WIRE -384 -464 -496 -464
WIRE -304 -464 -320 -464
WIRE -192 -464 -304 -464
WIRE -32 -464 -192 -464
WIRE 208 -464 32 -464
WIRE 704 -464 304 -464
WIRE 816 -464 704 -464
WIRE 816 -432 816 -464
WIRE -848 -400 -848 -464
WIRE -192 -384 -192 -464
WIRE -192 -368 -192 -384
WIRE -304 -352 -304 -464
WIRE 816 -304 816 -352
WIRE -848 -288 -848 -320
WIRE -304 -256 -304 -288
WIRE -192 -256 -192 -288
WIRE -192 -256 -304 -256
WIRE -304 -240 -304 -256
WIRE -592 -80 -848 -80
WIRE -384 -80 -496 -80
WIRE -304 -80 -320 -80
WIRE -192 -80 -304 -80
WIRE -32 -80 -192 -80
WIRE 208 -80 32 -80
WIRE 816 -80 304 -80
WIRE 816 -48 816 -80
WIRE -848 -16 -848 -80
WIRE -192 0 -192 -80
WIRE -192 16 -192 0
WIRE -304 32 -304 -80
WIRE 816 80 816 32
WIRE -848 96 -848 64
WIRE -304 128 -304 96
WIRE -192 128 -192 96
WIRE -192 128 -304 128
WIRE -304 144 -304 128
FLAG -848 -288 0
FLAG 816 -304 0
FLAG 704 -464 OUT4
FLAG -304 -240 0
FLAG -848 96 0
FLAG 816 80 0
FLAG -304 144 0
SYMBOL voltage -848 -416 R0
WINDOW 123 24 152 Left 2
WINDOW 39 24 124 Left 2
SYMATTR Value2 AC 1
SYMATTR SpiceLine Rser=50
SYMATTR InstName V1
SYMATTR Value ""
SYMBOL res 800 -448 R0
SYMATTR InstName RL
SYMATTR Value 50
SYMBOL cap -320 -480 R90
WINDOW 0 0 32 VBottom 2
WINDOW 3 32 32 VTop 2
SYMATTR InstName C1
SYMATTR Value 6.8p
SYMBOL cap 32 -480 R90
WINDOW 0 0 32 VBottom 2
WINDOW 3 32 32 VTop 2
SYMATTR InstName C2
SYMATTR Value 6.8p
SYMBOL cap -288 -288 R180
WINDOW 0 24 56 Left 2
WINDOW 3 24 8 Left 2
SYMATTR InstName C3
SYMATTR Value 180p
SYMBOL Contrib\\Wurth\\Signal\\RF-Inductors\\WE-CAIR -544 -464 R0
SYMATTR SpiceModel 5910_744918242_422n
SYMATTR InstName L2
SYMBOL Contrib\\Wurth\\Signal\\RF-Inductors\\WE-CAIR -192 -336 R90
SYMATTR SpiceModel 3136_744913118_18.5n
SYMATTR InstName L1
SYMBOL Contrib\\Wurth\\Signal\\RF-Inductors\\WE-CAIR 256 -464 R0
SYMATTR SpiceModel 5910_744918242_422n
SYMATTR InstName L3
SYMBOL voltage -848 -32 R0
WINDOW 123 24 152 Left 2
WINDOW 39 24 124 Left 2
SYMATTR Value2 AC 1
SYMATTR SpiceLine Rser=50
SYMATTR InstName V2
SYMATTR Value ""
SYMBOL res 800 -64 R0
SYMATTR InstName RL1
SYMATTR Value 50
SYMBOL cap -320 -96 R90
WINDOW 0 0 32 VBottom 2
WINDOW 3 32 32 VTop 2
SYMATTR InstName C4
SYMATTR Value 6.8p
SYMBOL cap 32 -96 R90
WINDOW 0 0 32 VBottom 2
WINDOW 3 32 32 VTop 2
SYMATTR InstName C5
SYMATTR Value 6.8p
SYMBOL cap -288 96 R180
WINDOW 0 24 56 Left 2
WINDOW 3 24 8 Left 2
SYMATTR InstName C6
SYMATTR Value 180p
SYMBOL Contrib\\Wurth\\Signal\\RF-Inductors\\WE-KI -192 48 R90
SYMATTR SpiceModel 1008_744762115A
SYMATTR InstName L5
SYMBOL Contrib\\Wurth\\Signal\\RF-Inductors\\WE-KI -544 -80 R0
SYMATTR SpiceModel 1008_744762239A
SYMATTR InstName L4
SYMBOL Contrib\\Wurth\\Signal\\RF-Inductors\\WE-KI 256 -80 R0
SYMATTR SpiceModel 1008_744762239A
SYMATTR InstName L6
TEXT -112 -384 Left 2 ;https://markimicrowave.com/technical-resources/tools/lc-filter-design-tool/\nBandpass Chebychev\nConventional Series First, 3rd order\n88MHz to 108MHz\n0.1dB ripple\n50ohm input and output\nE12-series components
TEXT -840 -712 Left 2 !.ac dec 1001 46.74Meg 203.3Meg
TEXT -840 -664 Left 2 !.net I(RL) V1
TEXT -112 0 Left 2 ;https://markimicrowave.com/technical-resources/tools/lc-filter-design-tool/\nBandpass Chebychev\nConventional Series First, 3rd order\n88MHz to 108MHz\n0.1dB ripple\n50ohm input and output\nE12-series components
TEXT -824 -616 Left 2 !.net i(RL1) V2
