Version 4
SHEET 1 880 680
TEXT -40 24 Left 2 ;Sayre §6.4
