Version 4
SHEET 1 952 1448
WIRE -384 80 -768 80
WIRE -352 80 -384 80
WIRE 128 80 -352 80
WIRE 192 80 128 80
WIRE 288 80 192 80
WIRE 832 80 288 80
WIRE 896 80 832 80
WIRE -352 96 -352 80
WIRE 288 128 288 80
WIRE 896 128 896 80
WIRE -768 144 -768 80
WIRE 128 144 128 80
WIRE 192 144 192 80
WIRE -352 208 -352 176
WIRE -352 224 -352 208
WIRE -768 256 -768 224
WIRE 128 256 128 208
WIRE 192 256 192 208
WIRE 288 256 288 208
WIRE 896 256 896 208
WIRE -352 352 -352 304
WIRE -368 464 -768 464
WIRE -272 464 -368 464
WIRE -144 464 -272 464
WIRE 16 464 -80 464
WIRE 112 464 16 464
WIRE 784 464 112 464
WIRE 896 464 784 464
WIRE -368 496 -368 464
WIRE -272 496 -272 464
WIRE 16 496 16 464
WIRE 112 496 112 464
WIRE 896 496 896 464
WIRE -768 528 -768 464
WIRE -368 608 -368 560
WIRE -336 608 -368 608
WIRE -272 608 -272 576
WIRE -272 608 -336 608
WIRE 16 608 16 560
WIRE 80 608 16 608
WIRE 112 608 112 576
WIRE 112 608 80 608
WIRE 896 624 896 576
WIRE -768 640 -768 608
WIRE 80 640 80 608
WIRE -336 656 -336 608
WIRE -512 800 -784 800
WIRE -384 800 -432 800
WIRE -240 800 -320 800
WIRE -128 800 -240 800
WIRE 32 800 -128 800
WIRE 176 800 96 800
WIRE 768 800 256 800
WIRE 880 800 768 800
WIRE 880 832 880 800
WIRE -784 864 -784 800
WIRE -128 896 -128 800
WIRE -240 912 -240 800
WIRE 880 960 880 912
WIRE -784 976 -784 944
WIRE -240 1008 -240 976
WIRE -128 1008 -128 976
WIRE -128 1008 -240 1008
WIRE -240 1024 -240 1008
FLAG -768 256 0
FLAG 192 256 0
FLAG 288 256 0
FLAG 896 256 0
FLAG 128 256 0
FLAG 832 80 OUT1
FLAG -384 80 2
FLAG -352 208 99
FLAG -352 352 0
FLAG -768 640 0
FLAG -336 656 0
FLAG 80 640 0
FLAG 896 624 0
FLAG 784 464 OUT3
FLAG -784 976 0
FLAG 880 960 0
FLAG 768 800 OUT4
FLAG -240 1024 0
SYMBOL voltage -768 128 R0
WINDOW 123 24 152 Left 2
WINDOW 39 24 124 Left 2
SYMATTR Value2 AC 2
SYMATTR SpiceLine Rser=50
SYMATTR InstName V1
SYMATTR Value ""
SYMBOL cap 176 144 R0
SYMATTR InstName C1
SYMATTR Value 220p
SYMATTR SpiceLine V=50 Irms=0 Rser=0.1207 Lser=611p mfg="Würth Elektronik" pn="885012006059 WCAP-CSGP 0603" type="NP0"
SYMBOL ind 272 112 R0
WINDOW 39 36 108 Left 2
SYMATTR SpiceLine Rser=0.157
SYMATTR InstName L1
SYMATTR Value 10n
SYMBOL res 880 112 R0
SYMATTR InstName R1
SYMATTR Value 50
SYMBOL cap 112 144 R0
SYMATTR InstName C2
SYMATTR Value 47p
SYMATTR SpiceLine V=50 Irms=0 Rser=0.2909 Lser=403p mfg="Würth Elektronik" pn="885012006055 WCAP-CSGP 0603" type="NP0"
SYMBOL res -368 80 R0
SYMATTR InstName R2
SYMATTR Value 10Meg
SYMBOL res -368 208 R0
SYMATTR InstName R3
SYMATTR Value 10Meg
SYMBOL voltage -768 512 R0
WINDOW 123 24 152 Left 2
WINDOW 39 24 124 Left 2
SYMATTR Value2 AC 2
SYMATTR SpiceLine Rser=50
SYMATTR InstName V3
SYMATTR Value ""
SYMBOL cap -384 496 R0
SYMATTR InstName C6
SYMATTR Value 150p
SYMBOL cap 0 496 R0
SYMATTR InstName C7
SYMATTR Value 150p
SYMBOL ind -288 480 R0
SYMATTR InstName L4
SYMATTR Value 15n
SYMBOL ind 96 480 R0
SYMATTR InstName L5
SYMATTR Value 15n
SYMBOL cap -80 448 R90
WINDOW 0 0 32 VBottom 2
WINDOW 3 32 32 VTop 2
SYMATTR InstName C8
SYMATTR Value 33p
SYMBOL res 880 480 R0
SYMATTR InstName R5
SYMATTR Value 50
SYMBOL voltage -784 848 R0
WINDOW 123 24 152 Left 2
WINDOW 39 24 124 Left 2
SYMATTR Value2 AC 2
SYMATTR SpiceLine Rser=50
SYMATTR InstName V4
SYMATTR Value ""
SYMBOL res 864 816 R0
SYMATTR InstName R6
SYMATTR Value 50
SYMBOL cap -320 784 R90
WINDOW 0 0 32 VBottom 2
WINDOW 3 32 32 VTop 2
SYMATTR InstName C9
SYMATTR Value 6.8p
SYMBOL cap 96 784 R90
WINDOW 0 0 32 VBottom 2
WINDOW 3 32 32 VTop 2
SYMATTR InstName C10
SYMATTR Value 6.8p
SYMBOL cap -224 976 R180
WINDOW 0 24 56 Left 2
WINDOW 3 24 8 Left 2
SYMATTR InstName C11
SYMATTR Value 180p
SYMBOL ind -144 880 R0
SYMATTR InstName L6
SYMATTR Value 15n
SYMBOL ind -416 784 R90
WINDOW 0 5 56 VBottom 2
WINDOW 3 32 56 VTop 2
SYMATTR InstName L7
SYMATTR Value 390n
SYMBOL ind 272 784 R90
WINDOW 0 5 56 VBottom 2
WINDOW 3 32 56 VTop 2
SYMATTR InstName L8
SYMATTR Value 390n
TEXT -728 -16 Left 2 !.ac dec 1000 50k 1G
TEXT 272 16 Left 2 ;No simulation model for L1
TEXT -464 40 Left 2 ;Measures insertion loss
TEXT -48 880 Left 2 ;https://markimicrowave.com/technical-resources/tools/lc-filter-design-tool/\nBandpass Chebychev\nConventional Series First, 3rd order\n88MHz to 108MHz\n0.1dB ripple\n50ohm input and output\nE12-series components
TEXT 240 552 Left 2 ;Tuned by playing with the values
