Version 4
SHEET 1 1276 788
WIRE -480 -320 -624 -320
WIRE -304 -320 -480 -320
WIRE -48 -320 -224 -320
WIRE 96 -320 16 -320
WIRE 224 -320 96 -320
WIRE 224 -288 224 -320
WIRE -624 -272 -624 -320
WIRE -480 -208 -480 -320
WIRE -304 -208 -480 -208
WIRE -208 -208 -224 -208
WIRE -96 -208 -208 -208
WIRE -48 -208 -96 -208
WIRE 96 -208 96 -320
WIRE 96 -208 32 -208
WIRE -624 -128 -624 -192
WIRE -208 -96 -208 -208
WIRE -96 -96 -96 -208
WIRE 224 -64 224 -208
WIRE -208 128 -208 0
WIRE -96 128 -96 -32
WIRE -96 128 -208 128
WIRE -208 160 -208 128
WIRE -480 288 -624 288
WIRE -304 288 -480 288
WIRE -48 288 -224 288
WIRE 96 288 16 288
WIRE 224 288 96 288
WIRE 224 320 224 288
WIRE -624 336 -624 288
WIRE -480 400 -480 288
WIRE -304 400 -480 400
WIRE -208 400 -224 400
WIRE -96 400 -208 400
WIRE -48 400 -96 400
WIRE 96 400 96 288
WIRE 96 400 32 400
WIRE -624 480 -624 416
WIRE -208 512 -208 400
WIRE -96 512 -96 400
WIRE 224 544 224 400
WIRE -208 736 -208 608
WIRE -96 736 -96 576
WIRE -96 736 -208 736
WIRE -208 768 -208 736
FLAG -624 -128 0
FLAG 224 -64 0
FLAG -208 160 0
FLAG -624 480 0
FLAG 224 544 0
FLAG -208 768 0
SYMBOL voltage -624 -288 R0
WINDOW 123 24 124 Left 2
WINDOW 39 24 152 Left 2
SYMATTR Value2 AC 1
SYMATTR SpiceLine Rser=50
SYMATTR InstName V1
SYMATTR Value ""
SYMBOL res 208 -304 R0
SYMATTR InstName R1
SYMATTR Value 50
SYMBOL ind -320 -304 R270
WINDOW 0 32 56 VTop 2
WINDOW 3 5 56 VBottom 2
SYMATTR InstName L1
SYMATTR Value RFI_1008A_744762368A_6u8
SYMATTR Prefix X
SYMBOL cap 16 -336 R90
WINDOW 0 0 32 VBottom 2
WINDOW 3 32 32 VTop 2
SYMATTR InstName C1
SYMATTR Value 33p
SYMBOL res -208 -224 R90
WINDOW 0 0 56 VBottom 2
WINDOW 3 32 56 VTop 2
SYMATTR InstName R2
SYMATTR Value 50
SYMBOL res 48 -224 R90
WINDOW 0 0 56 VBottom 2
WINDOW 3 32 56 VTop 2
SYMATTR InstName R3
SYMATTR Value 50
SYMBOL cap -112 -96 R0
SYMATTR InstName Cp1
SYMATTR Value 3.3n
SYMBOL Contrib\\Wurth\\Signal\\RF-Inductors\\WE-CAIR -208 -48 R90
SYMATTR SpiceModel 4248_744912168_68n
SYMATTR InstName L2
SYMBOL voltage -624 320 R0
WINDOW 123 24 124 Left 2
WINDOW 39 24 152 Left 2
SYMATTR Value2 AC 1
SYMATTR SpiceLine Rser=50
SYMATTR InstName V2
SYMATTR Value ""
SYMBOL res 208 304 R0
SYMATTR InstName R4
SYMATTR Value 50
SYMBOL ind -320 304 R270
WINDOW 0 32 56 VTop 2
WINDOW 3 5 56 VBottom 2
SYMATTR InstName L3
SYMATTR Value RFH_1008A_744758368A_6u8
SYMATTR Prefix X
SYMBOL cap 16 272 R90
WINDOW 0 0 32 VBottom 2
WINDOW 3 32 32 VTop 2
SYMATTR InstName C2
SYMATTR Value 33p
SYMBOL res -208 384 R90
WINDOW 0 0 56 VBottom 2
WINDOW 3 32 56 VTop 2
SYMATTR InstName R5
SYMATTR Value 50
SYMBOL res 48 384 R90
WINDOW 0 0 56 VBottom 2
WINDOW 3 32 56 VTop 2
SYMATTR InstName R6
SYMATTR Value 50
SYMBOL cap -112 512 R0
SYMATTR InstName Cp2
SYMATTR Value 3.3n
SYMBOL Contrib\\Wurth\\Signal\\RF-Inductors\\WE-KI -208 560 R90
SYMATTR SpiceModel 1008_744762168A
SYMATTR InstName L4
TEXT 344 -352 Left 2 !.net I(R1) V1\n.net I(R4) V2
TEXT 360 -392 Left 2 !.ac dec 1001 5e6 500e6
TEXT 360 -440 Left 2 !.inc WE-RFI.lib
TEXT 360 -416 Left 2 !.inc WE-RFH.lib
TEXT 336 336 Left 2 ;6.8µH WE-RFH: lower S11 near 10.7MHz
TEXT 352 -224 Left 2 ;6.8µH WE-RFI
TEXT 336 376 Left 2 ;WE-KI as L4 gives much lower S11.
